[General]
network = TestNet 
include rng.ini
record-eventlog = false
#eventlog-message-detail-pattern = *:(not declaredOn(cMessage) and not declaredOn(cNamedObject) and not declaredOn(cObject))
#num-rngs = 3
*.numHosts = ${n = 20}
sim-time-limit = ${time = 5.0s}
repeat = 1
**.mobility.rng-0 = 1
**.wlan[*].mac.rng-0 = 2
debug-on-errors = true
#cmdenv-express-mode = false
#cmdenv-module-messages = true 
**.radio.*.vector-recording = false
**.mac.*.vector-recording = false
**.constraintAreaSizeX = 1000m
**.constraintAreaSizeY = 1000m
**.constraintAreaSizeZ = 400m
**.host*.mobilityType = "StationaryMobility"
#
**.addressGenerator.generatorMode = "RoutingTable"
**.addressGenerator.listSize = 5
**.addressGenerator.keepSetConsistent = true
#
## nic settings
**.wlan[*].mgmt.frameCapacity = 10
**.wlan[*].mac.address = "auto"
**.wlan[*].mac.maxQueueSize = 14
**.wlan[*].mac.rtsThresholdBytes = 3000B
**.wlan[*].mac.bitrate = 54Mbps
**.wlan[*].mac.retryLimit = 7
**.wlan[*].mac.cwMinData = 7
**.wlan[*].mac.cwMinBroadcast = 31
#
#
**.wlan[*].radio.bitrate = 54Mbps
**.wlan[*].radio.transmitterPower = 20mW
**.wlan[*].radio.thermalNoise = -110dBm
**.wlan[*].radio.sensitivity = -85dBm
**.wlan[*].radio.pathLossAlpha = 2
**.wlan[*].radio.snirThreshold = 4dB
#
**.arp.globalARP = true
#
**.host*.routingProtocol = "OLSR"
**.IPForward = true #in the routing table
**.forceBroadcast = true

[Config TestEcho] 

description = "2 nodes with echo application"
*.numHosts = ${nn = 4}
sim-time-limit = 300s # this must be long or you wan't have enough sessions to make statistics! 
repeat = 20
**.mobility.rng-0 = 1
**.wlan[*].mac.rng-0 = 2
#debug-on-errors = true

**.debug = false
**.coreDebug = false
**.host*.**.channelNumber = 0

# mobility
**.mobility.initFromDisplayString = false
**.host[0].mobility.initialX = 10m
**.host[0].mobility.initialY = 10m
**.host[1].mobility.initialX = 20m
**.host[1].mobility.initialY = 20m
#
**.host[*].udpApp[0].typename = "UDPBasicApp"
**.host[*].numUdpApps = 1
##
##
**.host[*].udpApp[0].localPort = 1234
**.host[*].udpApp[0].destPort = 1234
**.host[*].udpApp[0].destAddresses = "host[1]"

**.host[*].udpApp[0].stopTime = 3000s
**.host[*].udpApp[0].startTime = 10s
#**.host[*].udpApp[0].startTime = uniform(30s,31s)
**.host[*].udpApp[0].delayLimit = 5s
**.host[*].udpApp[0].messageLength = 10B
**.host[*].udpApp[0].sendInterval = 5s
