[Config TestEcho] 

description = "2 nodes with echo application"
*.numHosts = ${nn = 4}
sim-time-limit = 300s # this must be long or you wan't have enough sessions to make statistics! 
repeat = 20
**.mobility.rng-0 = 1
**.wlan[*].mac.rng-0 = 2
#debug-on-errors = true

**.debug = false
**.coreDebug = false
**.host*.**.channelNumber = 0

# mobility
**.mobility.initFromDisplayString = false
**.host[0].mobility.initialX = 10m
**.host[0].mobility.initialY = 10m
**.host[1].mobility.initialX = 20m
**.host[1].mobility.initialY = 20m
#
**.host[*].udpApp[0].typename = "UDPBasicApp"
**.host[*].numUdpApps = 1
##
##
**.host[*].udpApp[0].localPort = 1234
**.host[*].udpApp[0].destPort = 1234
**.host[*].udpApp[0].destAddresses = "host[1]"

**.host[*].udpApp[0].stopTime = 3000s
**.host[*].udpApp[0].startTime = 10s
#**.host[*].udpApp[0].startTime = uniform(30s,31s)
**.host[*].udpApp[0].delayLimit = 5s
**.host[*].udpApp[0].messageLength = 10B
**.host[*].udpApp[0].sendInterval = 5s

[Config TestEchoBig] 

description = "20 nodes with echo application"
*.numHosts = ${nn = 20}
sim-time-limit = 150s
repeat = 1
#**.mobility.rng-0 = 1
#**.wlan[*].mac.rng-0 = 2
#debug-on-errors = true

**.debug = false
**.coreDebug = false

# mobility
**.mobility.initFromDisplayString = false
**.host[0].mobility.initialX = 10m
**.host[0].mobility.initialY = 10m
**.host[1].mobility.initialX = 20m
**.host[1].mobility.initialY = 20m

#this network is connected
**.constraintAreaSizeX = 4500m
**.constraintAreaSizeY = 4500m
**.constraintAreaSizeZ = 100m

**.host[*].udpApp[0].typename = "UDPEchoApp"
**.host[*].numUdpApps = 1


**.host[*].udpApp[0].localPort = 1234
**.host[*].udpApp[0].destPort = 1234

**.host[*].udpApp[0].stopTime = 3000s
**.host[*].udpApp[0].startTime = uniform(30s,35s)
**.host[*].udpApp[0].delayLimit = 5s
**.host[*].udpApp[0].messageLength = 100B
**.host[*].udpApp[0].sendInterval = 5s

[Config TestOLSRFast] 

description = "20 nodes with echo application"
*.numHosts = ${nn = 20}
sim-time-limit = 500s
repeat = 1
#**.mobility.rng-0 = 1
#**.wlan[*].mac.rng-0 = 2
#debug-on-errors = true

**.debug = false
**.coreDebug = false
**.useOptimization = ${true,false}

# mobility
**.mobility.initFromDisplayString = false

#this network is connected
**.constraintAreaSizeX = 2500m
**.constraintAreaSizeY = 2500m
**.constraintAreaSizeZ = 100m

**.host*.mobilityType = "MassMobility"
**.host*.mobility.initFromDisplayString = false
**.host*.mobility.changeInterval = truncnormal(2s, 0.5s)
**.host*.mobility.changeAngleBy = normal(0deg, 30deg)
**.host*.mobility.speed = truncnormal(15mps, 5mps)
